Circuit: * C:\Users\Soldo\Documents\Uni\PSE-project\lc_osc\Draft1.asc

Warning: Multiple definitions of model "2scr375p" Type: BJT
Warning: Multiple definitions of model "bc857b" Type: BJT
Warning: Multiple definitions of model "bc847c" Type: BJT
Warning: Multiple definitions of model "bc847b" Type: BJT
Per .tran options, skipping operating point for transient analysis.

Date: Thu May 25 12:28:36 2023
Total elapsed time: 0.178 seconds.

tnom = 27
temp = 27
method = modified trap
totiter = 6492
traniter = 6492
tranpoints = 3220
accept = 2360
rejected = 860
matrix size = 7
fillins = 2
solver = Normal
Avg thread counts: 1.1/1.2/1.2/1.1
Matrix Compiler1: 526 bytes object code size  0.1/0.1/[0.1]
Matrix Compiler2: off  [0.1]/0.1/0.1

