Circuit: * C:\Users\Soldo\Documents\Uni\PSE-project\hartley_osc\hartley_osc_.asc

Warning: Multiple definitions of model "2scr375p" Type: BJT
Warning: Multiple definitions of model "bc857b" Type: BJT
Warning: Multiple definitions of model "bc847c" Type: BJT
Warning: Multiple definitions of model "bc847b" Type: BJT
Direct Newton iteration for .op point succeeded.

Date: Thu Jun  1 12:15:17 2023
Total elapsed time: 0.513 seconds.

tnom = 27
temp = 27
method = modified trap
totiter = 122222
traniter = 122214
tranpoints = 49426
accept = 34513
rejected = 14913
matrix size = 10
fillins = 4
solver = Normal
Avg thread counts: 1.0/1.0/1.0/1.0
Matrix Compiler1: 836 bytes object code size  0.7/0.5/[0.3]
Matrix Compiler2: 890 bytes object code size  0.3/0.5/[0.3]

