Circuit: * E:\Projects - Fast Life\Uni\PSE-project\hartley_osc\hartley_osc_.asc

Warning: Multiple definitions of model "2scr375p" Type: BJT
Warning: Multiple definitions of model "bc857b" Type: BJT
Warning: Multiple definitions of model "bc847c" Type: BJT
Warning: Multiple definitions of model "bc847b" Type: BJT
Direct Newton iteration for .op point succeeded.

Date: Tue Jun  6 08:00:13 2023
Total elapsed time: 0.360 seconds.

tnom = 27
temp = 27
method = modified trap
totiter = 33506
traniter = 33498
tranpoints = 12453
accept = 8692
rejected = 3761
matrix size = 10
fillins = 4
solver = Normal
Avg thread counts: 1.0/1.1/1.1/1.0
Matrix Compiler1:      45 opcodes  0.2/[0.2]/0.2
Matrix Compiler2: 890 bytes object code size  0.1/0.1/[0.1]

