Circuit: * E:\Projects - Fast Life\Uni\PSE-project\hartley_osc\hartley_osc_.asc

Warning: Multiple definitions of model "2scr375p" Type: BJT
Warning: Multiple definitions of model "bc857b" Type: BJT
Warning: Multiple definitions of model "bc847c" Type: BJT
Warning: Multiple definitions of model "bc847b" Type: BJT
Direct Newton iteration for .op point succeeded.

Date: Tue Jun  6 10:43:36 2023
Total elapsed time: 1.648 seconds.

tnom = 27
temp = 27
method = modified trap
totiter = 357607
traniter = 357599
tranpoints = 128029
accept = 88025
rejected = 40004
matrix size = 10
fillins = 4
solver = Normal
Avg thread counts: 1.0/1.0/1.0/1.0
Matrix Compiler1:      45 opcodes  0.3/[0.2]/0.2
Matrix Compiler2: 890 bytes object code size  0.2/0.2/[0.1]

