Circuit: * C:\Users\Soldo\Documents\Uni\PSE-project\real_rc_osc\real_rc_osc.asc

Per .tran options, skipping operating point for transient analysis.

Date: Mon May 22 11:58:23 2023
Total elapsed time: 0.065 seconds.

tnom = 27
temp = 27
method = modified trap
totiter = 606
traniter = 606
tranpoints = 234
accept = 207
rejected = 27
matrix size = 8
fillins = 2
solver = Normal
Avg thread counts: 2.1/3.8/3.8/2.1
Matrix Compiler1: 590 bytes object code size  0.2/0.2/[0.1]
Matrix Compiler2: off  [0.1]/0.2/0.1

