Circuit: * C:\Users\Soldo\Documents\Uni\PSE-project\real_rc_osc\real_rc_osc.asc

Per .tran options, skipping operating point for transient analysis.

Date: Thu May 25 11:45:10 2023
Total elapsed time: 0.147 seconds.

tnom = 27
temp = 27
method = modified trap
totiter = 20908
traniter = 20908
tranpoints = 5725
accept = 4179
rejected = 1546
matrix size = 10
fillins = 2
solver = Normal
Avg thread counts: 1.0/1.1/1.1/1.0
Matrix Compiler1: 732 bytes object code size  0.2/0.2/[0.1]
Matrix Compiler2: off  [0.1]/0.2/0.1

