Circuit: * E:\Projects - Fast Life\Uni\PSE-project\colpitts_osc\colpitts_osc.asc

Warning: Multiple definitions of model "2scr375p" Type: BJT
Warning: Multiple definitions of model "bc857b" Type: BJT
Warning: Multiple definitions of model "bc847c" Type: BJT
Warning: Multiple definitions of model "bc847b" Type: BJT
WARNING: Node VOUT is floating.

Per .tran options, skipping operating point for transient analysis.

Date: Tue Jun  6 10:09:51 2023
Total elapsed time: 2.620 seconds.

tnom = 27
temp = 27
method = modified trap
totiter = 1150344
traniter = 1150344
tranpoints = 378851
accept = 267785
rejected = 111066
matrix size = 10
fillins = 4
solver = Normal
Avg thread counts: 1.0/1.0/1.0/1.0
Matrix Compiler1: 836 bytes object code size  0.4/0.3/[0.3]
Matrix Compiler2: off  [0.2]/0.3/0.9

