Circuit: * E:\Projects - Fast Life\Uni\PSE-project\colpitts_osc\colpitts_osc.asc

Warning: Multiple definitions of model "2scr375p" Type: BJT
Warning: Multiple definitions of model "bc857b" Type: BJT
Warning: Multiple definitions of model "bc847c" Type: BJT
Warning: Multiple definitions of model "bc847b" Type: BJT
WARNING: Node VOUT is floating.

Per .tran options, skipping operating point for transient analysis.

Date: Tue Jun  6 08:26:34 2023
Total elapsed time: 1.286 seconds.

tnom = 27
temp = 27
method = modified trap
totiter = 634435
traniter = 634435
tranpoints = 199458
accept = 138627
rejected = 60831
matrix size = 10
fillins = 4
solver = Normal
Avg thread counts: 1.0/1.0/1.0/1.0
Matrix Compiler1: 836 bytes object code size  0.3/0.2/[0.1]
Matrix Compiler2: 890 bytes object code size  0.2/0.2/[0.1]

