Circuit: * C:\Users\Soldo\Documents\Uni\PSE-project\colpitts_osc\colpitts_osc.asc

Warning: Multiple definitions of model "2scr375p" Type: BJT
Warning: Multiple definitions of model "bc857b" Type: BJT
Warning: Multiple definitions of model "bc847c" Type: BJT
Warning: Multiple definitions of model "bc847b" Type: BJT
WARNING: Node VOUT is floating.

Per .tran options, skipping operating point for transient analysis.

Date: Thu Jun  1 12:15:33 2023
Total elapsed time: 0.917 seconds.

tnom = 27
temp = 27
method = modified trap
totiter = 111643
traniter = 111643
tranpoints = 55804
accept = 40229
rejected = 15575
matrix size = 10
fillins = 4
solver = Normal
Avg thread counts: 1.0/1.0/1.0/1.0
Matrix Compiler1: off  [0.3]/0.6/0.4
Matrix Compiler2: off  [0.2]/0.6/0.4

