Circuit: * E:\Projects - Fast Life\Uni\PSE-project\not_working\hartley_osc.asc

Warning: Multiple definitions of model "2scr375p" Type: BJT
Warning: Multiple definitions of model "bc857b" Type: BJT
Warning: Multiple definitions of model "bc847c" Type: BJT
Warning: Multiple definitions of model "bc847b" Type: BJT
Limiting rise time of source i1 to 1e-08
Limiting fall time of source i1 to 1e-08
Direct Newton iteration for .op point succeeded.

Date: Thu Jun  1 09:15:11 2023
Total elapsed time: 0.118 seconds.

tnom = 27
temp = 27
method = modified trap
totiter = 7458
traniter = 7434
tranpoints = 3713
accept = 2871
rejected = 842
matrix size = 11
fillins = 0
solver = Normal
Avg thread counts: 1.1/1.3/1.3/1.1
Matrix Compiler1:      36 opcodes  0.2/[0.2]/0.2
Matrix Compiler2: 861 bytes object code size  0.2/0.2/[0.1]

