Circuit: * E:\Projects - Fast Life\Uni\PSE-project\lc_osc\lc_osc.asc

Warning: Multiple definitions of model "2scr375p" Type: BJT
Warning: Multiple definitions of model "bc857b" Type: BJT
Warning: Multiple definitions of model "bc847c" Type: BJT
Warning: Multiple definitions of model "bc847b" Type: BJT
WARNING: Node VOUT is floating.

WARNING: Less than two connections to node vout.  This node is used by c4.
Per .tran options, skipping operating point for transient analysis.

Date: Tue May 30 16:07:50 2023
Total elapsed time: 0.191 seconds.

tnom = 27
temp = 27
method = modified trap
totiter = 60594
traniter = 60594
tranpoints = 24742
accept = 17110
rejected = 7632
matrix size = 10
fillins = 4
solver = Normal
Avg thread counts: 1.0/1.0/1.0/1.0
Matrix Compiler1: 854 bytes object code size  0.2/0.1/[0.1]
Matrix Compiler2: 924 bytes object code size  0.1/0.1/[0.1]

