Circuit: * C:\Users\Soldo\Documents\Uni\PSE-project\lc_osc\lc_osc.asc

Warning: Multiple definitions of model "2scr375p" Type: BJT
Warning: Multiple definitions of model "bc857b" Type: BJT
Warning: Multiple definitions of model "bc847c" Type: BJT
Warning: Multiple definitions of model "bc847b" Type: BJT
WARNING: Node VOUT is floating.

WARNING: Less than two connections to node vout.  This node is used by c4.
Per .tran options, skipping operating point for transient analysis.

Date: Thu May 25 11:03:20 2023
Total elapsed time: 0.048 seconds.

tnom = 27
temp = 27
method = modified trap
totiter = 4462
traniter = 4462
tranpoints = 1931
accept = 1424
rejected = 507
matrix size = 7
fillins = 0
solver = Normal
Avg thread counts: 1.1/1.3/1.3/1.1
Matrix Compiler1: off  [0.1]/0.1/0.1
Matrix Compiler2: off  [0.1]/0.1/0.1

