Circuit: * C:\Users\Soldo\Documents\Uni\PSE-project\ideal_rc_osc.asc

Direct Newton iteration for .op point succeeded.

Date: Mon May 22 10:45:18 2023
Total elapsed time: 0.120 seconds.

tnom = 27
temp = 27
method = modified trap
totiter = 41478
traniter = 41443
tranpoints = 11050
accept = 7840
rejected = 3210
matrix size = 6
fillins = 1
solver = Normal
Avg thread counts: 1.0/1.1/1.1/1.0
Matrix Compiler1: 316 bytes object code size  0.2/0.1/[0.1]
Matrix Compiler2: 536 bytes object code size  0.1/0.2/[0.1]

