Circuit: * C:\Users\Soldo\Documents\Uni\PSE-project\ideal_rc_osc\ideal_rc_osc.asc

Direct Newton iteration for .op point succeeded.

Date: Thu May 25 11:41:29 2023
Total elapsed time: 0.173 seconds.

tnom = 27
temp = 27
method = modified trap
totiter = 40053
traniter = 40050
tranpoints = 14716
accept = 13317
rejected = 1399
matrix size = 8
fillins = 1
solver = Normal
Avg thread counts: 1.0/1.0/1.0/1.0
Matrix Compiler1: 434 bytes object code size  0.2/0.1/[0.1]
Matrix Compiler2: 764 bytes object code size  0.1/0.2/[0.1]

