Circuit: * C:\Users\Soldo\Documents\Uni\PSE-project\ideal_rc_osc\ideal_rc_osc.asc

Direct Newton iteration for .op point succeeded.

Date: Mon May 22 12:31:06 2023
Total elapsed time: 0.035 seconds.

tnom = 27
temp = 27
method = modified trap
totiter = 444
traniter = 440
tranpoints = 221
accept = 221
rejected = 0
matrix size = 8
fillins = 1
solver = Normal
Avg thread counts: 2.5/4.0/4.0/2.5
Matrix Compiler1: 434 bytes object code size  0.2/0.1/[0.1]
Matrix Compiler2: 764 bytes object code size  0.1/0.1/[0.1]

