Circuit: * E:\Projects - Fast Life\Uni\PSE-project\not_working\hartley_osc.asc

Warning: Multiple definitions of model "2scr375p" Type: BJT
Warning: Multiple definitions of model "bc857b" Type: BJT
Warning: Multiple definitions of model "bc847c" Type: BJT
Warning: Multiple definitions of model "bc847b" Type: BJT
Limiting rise time of source i1 to 1e-08
Limiting fall time of source i1 to 1e-08
Direct Newton iteration for .op point succeeded.

Date: Wed May 31 14:38:05 2023
Total elapsed time: 0.380 seconds.

tnom = 27
temp = 27
method = modified trap
totiter = 111112
traniter = 111086
tranpoints = 55428
accept = 38862
rejected = 16566
matrix size = 11
fillins = 0
solver = Normal
Avg thread counts: 1.0/1.0/1.0/1.0
Matrix Compiler1: 646 bytes object code size  0.3/0.2/[0.2]
Matrix Compiler2: 861 bytes object code size  0.2/0.2/[0.1]

